[root]
type=Root
children=system
eventq_index=0
full_system=false
sim_quantum=0
time_sync_enable=false
time_sync_period=100000000000
time_sync_spin_threshold=100000000

[system]
type=System
children=clk_domain cpu0 cpu1 cpu_clk_domain cpu_voltage_domain dvfs_handler gpu hdp mem_ctrls redirect_paths0 redirect_paths1 redirect_paths2 ruby ruby_clk_domain sys_port_proxy voltage_domain workload
byte_order=little
cache_line_size=128
eventq_index=0
exit_on_work_items=false
init_param=0
kvm_vm=Null
m5ops_base=4294901760
mem_mode=timing
mem_ranges=0:2589934592
memories=system.mem_ctrls
mmap_using_noreserve=false
multi_thread=false
num_work_ids=16
readfile=
redirect_paths=system.redirect_paths0 system.redirect_paths1 system.redirect_paths2
shadow_rom_ranges=
shared_backstore=
symbolfile=
thermal_components=
thermal_model=Null
work_begin_ckpt_count=0
work_begin_cpu_id_exit=-1
work_begin_exit_count=0
work_cpus_ckpt_count=0
work_end_ckpt_count=0
work_end_exit_count=0
work_item_id=-1
workload=system.workload
system_port=system.sys_port_proxy.in_ports[0]

[system.clk_domain]
type=SrcClockDomain
clock=1000
domain_id=-1
eventq_index=0
init_perf_level=0
voltage_domain=system.voltage_domain

[system.cpu0]
type=TimingSimpleCPU
children=interrupts isa mmu power_state tracer workload
branchPred=Null
checker=Null
clk_domain=system.cpu_clk_domain
cpu_id=0
do_checkpoint_insts=true
do_statistics_insts=true
eventq_index=0
function_trace=false
function_trace_start=0
interrupts=system.cpu0.interrupts
isa=system.cpu0.isa
max_insts_all_threads=0
max_insts_any_thread=0
mmu=system.cpu0.mmu
numThreads=1
power_gating_on_idle=false
power_model=
power_state=system.cpu0.power_state
progress_interval=0
pwr_gating_latency=300
simpoint_start_insts=
socket_id=0
switched_out=false
syscallRetryLatency=10000
system=system
tracer=system.cpu0.tracer
workload=system.cpu0.workload
dcache_port=system.ruby.l1_cntrl0.sequencer.in_ports[1]
icache_port=system.ruby.l1_cntrl0.sequencer.in_ports[0]

[system.cpu0.interrupts]
type=X86LocalApic
children=clk_domain
clk_domain=system.cpu0.interrupts.clk_domain
eventq_index=0
int_latency=1000
pio_latency=100000
system=system
int_requestor=system.ruby.l1_cntrl0.sequencer.in_ports[4]
int_responder=system.ruby.l1_cntrl0.sequencer.interrupt_out_port[1]
pio=system.ruby.l1_cntrl0.sequencer.interrupt_out_port[0]

[system.cpu0.interrupts.clk_domain]
type=DerivedClockDomain
clk_divider=16
clk_domain=system.cpu_clk_domain
eventq_index=0

[system.cpu0.isa]
type=X86ISA
eventq_index=0
vendor_string=M5 Simulator

[system.cpu0.mmu]
type=X86MMU
children=dtb itb
dtb=system.cpu0.mmu.dtb
eventq_index=0
itb=system.cpu0.mmu.itb

[system.cpu0.mmu.dtb]
type=X86TLB
children=walker
eventq_index=0
size=64
system=system
walker=system.cpu0.mmu.dtb.walker

[system.cpu0.mmu.dtb.walker]
type=X86PagetableWalker
children=power_state
bypass_l1=false
clk_domain=system.cpu_clk_domain
eventq_index=0
num_squash_per_cycle=4
power_model=
power_state=system.cpu0.mmu.dtb.walker.power_state
system=system
port=system.ruby.l1_cntrl0.sequencer.in_ports[3]

[system.cpu0.mmu.dtb.walker.power_state]
type=PowerState
clk_gate_bins=20
clk_gate_max=1000000000000
clk_gate_min=1000
default_state=UNDEFINED
eventq_index=0
leaders=
possible_states=

[system.cpu0.mmu.itb]
type=X86TLB
children=walker
eventq_index=0
size=64
system=system
walker=system.cpu0.mmu.itb.walker

[system.cpu0.mmu.itb.walker]
type=X86PagetableWalker
children=power_state
bypass_l1=false
clk_domain=system.cpu_clk_domain
eventq_index=0
num_squash_per_cycle=4
power_model=
power_state=system.cpu0.mmu.itb.walker.power_state
system=system
port=system.ruby.l1_cntrl0.sequencer.in_ports[2]

[system.cpu0.mmu.itb.walker.power_state]
type=PowerState
clk_gate_bins=20
clk_gate_max=1000000000000
clk_gate_min=1000
default_state=UNDEFINED
eventq_index=0
leaders=
possible_states=

[system.cpu0.power_state]
type=PowerState
clk_gate_bins=20
clk_gate_max=1000000000000
clk_gate_min=1000
default_state=UNDEFINED
eventq_index=0
leaders=
possible_states=ON CLK_GATED OFF

[system.cpu0.tracer]
type=ExeTracer
eventq_index=0

[system.cpu0.workload]
type=Process
cmd=/mnt/d/source/github/sim/mygem5_2112/gem5/tests/test-progs/hello/src/hello_cpu
cwd=/mnt/d/source/github/sim/mygem5_2112/gem5/design
drivers=
egid=100
env=
errout=cerr
euid=100
eventq_index=0
executable=/mnt/d/source/github/sim/mygem5_2112/gem5/tests/test-progs/hello/src/hello_cpu
gid=100
input=cin
kvmInSE=false
maxStackSize=67108864
output=cout
pgid=100
pid=100
ppid=0
release=5.1.0
simpoint=0
system=system
uid=100
useArchPT=false

[system.cpu1]
type=TimingSimpleCPU
children=interrupts isa mmu power_state tracer workload
branchPred=Null
checker=Null
clk_domain=system.cpu_clk_domain
cpu_id=1
do_checkpoint_insts=true
do_statistics_insts=true
eventq_index=0
function_trace=false
function_trace_start=0
interrupts=system.cpu1.interrupts
isa=system.cpu1.isa
max_insts_all_threads=0
max_insts_any_thread=0
mmu=system.cpu1.mmu
numThreads=1
power_gating_on_idle=false
power_model=
power_state=system.cpu1.power_state
progress_interval=0
pwr_gating_latency=300
simpoint_start_insts=
socket_id=0
switched_out=false
syscallRetryLatency=10000
system=system
tracer=system.cpu1.tracer
workload=system.cpu1.workload
dcache_port=system.ruby.l1_cntrl1.sequencer.in_ports[1]
icache_port=system.ruby.l1_cntrl1.sequencer.in_ports[0]

[system.cpu1.interrupts]
type=X86LocalApic
children=clk_domain
clk_domain=system.cpu1.interrupts.clk_domain
eventq_index=0
int_latency=1000
pio_latency=100000
system=system
int_requestor=system.ruby.l1_cntrl1.sequencer.in_ports[4]
int_responder=system.ruby.l1_cntrl1.sequencer.interrupt_out_port[1]
pio=system.ruby.l1_cntrl1.sequencer.interrupt_out_port[0]

[system.cpu1.interrupts.clk_domain]
type=DerivedClockDomain
clk_divider=16
clk_domain=system.cpu_clk_domain
eventq_index=0

[system.cpu1.isa]
type=X86ISA
eventq_index=0
vendor_string=M5 Simulator

[system.cpu1.mmu]
type=X86MMU
children=dtb itb
dtb=system.cpu1.mmu.dtb
eventq_index=0
itb=system.cpu1.mmu.itb

[system.cpu1.mmu.dtb]
type=X86TLB
children=walker
eventq_index=0
size=64
system=system
walker=system.cpu1.mmu.dtb.walker

[system.cpu1.mmu.dtb.walker]
type=X86PagetableWalker
children=power_state
bypass_l1=false
clk_domain=system.cpu_clk_domain
eventq_index=0
num_squash_per_cycle=4
power_model=
power_state=system.cpu1.mmu.dtb.walker.power_state
system=system
port=system.ruby.l1_cntrl1.sequencer.in_ports[3]

[system.cpu1.mmu.dtb.walker.power_state]
type=PowerState
clk_gate_bins=20
clk_gate_max=1000000000000
clk_gate_min=1000
default_state=UNDEFINED
eventq_index=0
leaders=
possible_states=

[system.cpu1.mmu.itb]
type=X86TLB
children=walker
eventq_index=0
size=64
system=system
walker=system.cpu1.mmu.itb.walker

[system.cpu1.mmu.itb.walker]
type=X86PagetableWalker
children=power_state
bypass_l1=false
clk_domain=system.cpu_clk_domain
eventq_index=0
num_squash_per_cycle=4
power_model=
power_state=system.cpu1.mmu.itb.walker.power_state
system=system
port=system.ruby.l1_cntrl1.sequencer.in_ports[2]

[system.cpu1.mmu.itb.walker.power_state]
type=PowerState
clk_gate_bins=20
clk_gate_max=1000000000000
clk_gate_min=1000
default_state=UNDEFINED
eventq_index=0
leaders=
possible_states=

[system.cpu1.power_state]
type=PowerState
clk_gate_bins=20
clk_gate_max=1000000000000
clk_gate_min=1000
default_state=UNDEFINED
eventq_index=0
leaders=
possible_states=ON CLK_GATED OFF

[system.cpu1.tracer]
type=ExeTracer
eventq_index=0

[system.cpu1.workload]
type=Process
cmd=/mnt/d/source/github/sim/mygem5_2112/gem5/tests/test-progs/hello/src/hello_opu
cwd=/mnt/d/source/github/sim/mygem5_2112/gem5/design
drivers=
egid=100
env=
errout=cerr
euid=100
eventq_index=0
executable=/mnt/d/source/github/sim/mygem5_2112/gem5/tests/test-progs/hello/src/hello_opu
gid=100
input=cin
kvmInSE=false
maxStackSize=67108864
output=cout
pgid=100
pid=1000
ppid=0
release=5.1.0
simpoint=0
system=system
uid=100
useArchPT=false

[system.cpu_clk_domain]
type=SrcClockDomain
clock=500
domain_id=-1
eventq_index=0
init_perf_level=0
voltage_domain=system.cpu_voltage_domain

[system.cpu_voltage_domain]
type=VoltageDomain
eventq_index=0
voltage=1.0

[system.dvfs_handler]
type=DVFSHandler
domains=
enable=false
eventq_index=0
sys_clk_domain=system.clk_domain
transition_latency=100000000

[system.gpu]
type=CudaGPU
children=ce clk_domain cores_wrapper dram_wrapper icnt_wrapper l2_wrapper power_state shader_cores shader_mmu
access_host_pagetable=false
clk_domain=system.gpu.clk_domain
config_path=m5out/gpgpusim.config
cores_wrapper=system.gpu.cores_wrapper
dram_wrapper=system.gpu.dram_wrapper
dump_kernel_stats=false
eventq_index=0
gpu_memory_range=1442450944:2589934592
icnt_wrapper=system.gpu.icnt_wrapper
kernel_launch_delay=2.5e-07
kernel_return_delay=1e-07
l2_wrapper=system.gpu.l2_wrapper
manage_gpu_memory=true
power_model=
power_state=system.gpu.power_state
ruby=system.ruby
shader_mmu=system.gpu.shader_mmu
shared_mem_delay=1
stats_filename=gpu_stats.txt
sys=system
warp_size=32

[system.gpu.ce]
type=GPUCopyEngine
children=device_dtb host_dtb power_state
buffering=128
cache_line_size=128
clk_domain=system.gpu.clk_domain
device_dtb=system.gpu.ce.device_dtb
driver_delay=5000000
eventq_index=0
gpu=system.gpu
host_dtb=system.gpu.ce.host_dtb
id=-1
power_model=
power_state=system.gpu.ce.power_state
stats_filename=ce_stats.txt
sys=system
device_port=system.ruby.ce_cntrl.dma_sequencer.in_ports[32]
host_port=system.hdp.data_port

[system.gpu.ce.device_dtb]
type=ShaderTLB
access_host_pagetable=false
associativity=4
entries=0
eventq_index=0
gpu=system.gpu
hit_latency=1

[system.gpu.ce.host_dtb]
type=ShaderTLB
access_host_pagetable=false
associativity=4
entries=0
eventq_index=0
gpu=system.gpu
hit_latency=1

[system.gpu.ce.power_state]
type=PowerState
clk_gate_bins=20
clk_gate_max=1000000000000
clk_gate_min=1000
default_state=UNDEFINED
eventq_index=0
leaders=
possible_states=

[system.gpu.clk_domain]
type=SrcClockDomain
children=voltage_domain
clock=1429
domain_id=-1
eventq_index=0
init_perf_level=0
voltage_domain=system.gpu.clk_domain.voltage_domain

[system.gpu.clk_domain.voltage_domain]
type=VoltageDomain
eventq_index=0
voltage=1.0

[system.gpu.cores_wrapper]
type=GPGPUSimComponentWrapper
children=power_state
clk_domain=system.gpu.clk_domain
eventq_index=0
power_model=
power_state=system.gpu.cores_wrapper.power_state

[system.gpu.cores_wrapper.power_state]
type=PowerState
clk_gate_bins=20
clk_gate_max=1000000000000
clk_gate_min=1000
default_state=UNDEFINED
eventq_index=0
leaders=
possible_states=

[system.gpu.dram_wrapper]
type=GPGPUSimComponentWrapper
children=clk_domain power_state
clk_domain=system.gpu.dram_wrapper.clk_domain
eventq_index=0
power_model=
power_state=system.gpu.dram_wrapper.power_state

[system.gpu.dram_wrapper.clk_domain]
type=SrcClockDomain
clock=1176
domain_id=-1
eventq_index=0
init_perf_level=0
voltage_domain=system.gpu.clk_domain.voltage_domain

[system.gpu.dram_wrapper.power_state]
type=PowerState
clk_gate_bins=20
clk_gate_max=1000000000000
clk_gate_min=1000
default_state=UNDEFINED
eventq_index=0
leaders=
possible_states=

[system.gpu.icnt_wrapper]
type=GPGPUSimComponentWrapper
children=clk_domain power_state
clk_domain=system.gpu.icnt_wrapper.clk_domain
eventq_index=0
power_model=
power_state=system.gpu.icnt_wrapper.power_state

[system.gpu.icnt_wrapper.clk_domain]
type=DerivedClockDomain
clk_divider=2
clk_domain=system.gpu.clk_domain
eventq_index=0

[system.gpu.icnt_wrapper.power_state]
type=PowerState
clk_gate_bins=20
clk_gate_max=1000000000000
clk_gate_min=1000
default_state=UNDEFINED
eventq_index=0
leaders=
possible_states=

[system.gpu.l2_wrapper]
type=GPGPUSimComponentWrapper
children=power_state
clk_domain=system.gpu.clk_domain
eventq_index=0
power_model=
power_state=system.gpu.l2_wrapper.power_state

[system.gpu.l2_wrapper.power_state]
type=PowerState
clk_gate_bins=20
clk_gate_max=1000000000000
clk_gate_min=1000
default_state=UNDEFINED
eventq_index=0
leaders=
possible_states=

[system.gpu.power_state]
type=PowerState
clk_gate_bins=20
clk_gate_max=1000000000000
clk_gate_min=1000
default_state=UNDEFINED
eventq_index=0
leaders=
possible_states=

[system.gpu.shader_cores]
type=CudaCore
children=itb lsq power_state
clk_domain=system.gpu.clk_domain
eventq_index=0
gpu=system.gpu
id=0
itb=system.gpu.shader_cores.itb
power_model=
power_state=system.gpu.shader_cores.power_state
sys=system
warp_contexts=48
inst_port=system.ruby.l1_cntrl_sp00.sequencer.in_ports[0]
lsq_ctrl_port=system.gpu.shader_cores.lsq.control_port
lsq_port=system.gpu.shader_cores.lsq.lane_port[0] system.gpu.shader_cores.lsq.lane_port[1] system.gpu.shader_cores.lsq.lane_port[2] system.gpu.shader_cores.lsq.lane_port[3] system.gpu.shader_cores.lsq.lane_port[4] system.gpu.shader_cores.lsq.lane_port[5] system.gpu.shader_cores.lsq.lane_port[6] system.gpu.shader_cores.lsq.lane_port[7] system.gpu.shader_cores.lsq.lane_port[8] system.gpu.shader_cores.lsq.lane_port[9] system.gpu.shader_cores.lsq.lane_port[10] system.gpu.shader_cores.lsq.lane_port[11] system.gpu.shader_cores.lsq.lane_port[12] system.gpu.shader_cores.lsq.lane_port[13] system.gpu.shader_cores.lsq.lane_port[14] system.gpu.shader_cores.lsq.lane_port[15] system.gpu.shader_cores.lsq.lane_port[16] system.gpu.shader_cores.lsq.lane_port[17] system.gpu.shader_cores.lsq.lane_port[18] system.gpu.shader_cores.lsq.lane_port[19] system.gpu.shader_cores.lsq.lane_port[20] system.gpu.shader_cores.lsq.lane_port[21] system.gpu.shader_cores.lsq.lane_port[22] system.gpu.shader_cores.lsq.lane_port[23] system.gpu.shader_cores.lsq.lane_port[24] system.gpu.shader_cores.lsq.lane_port[25] system.gpu.shader_cores.lsq.lane_port[26] system.gpu.shader_cores.lsq.lane_port[27] system.gpu.shader_cores.lsq.lane_port[28] system.gpu.shader_cores.lsq.lane_port[29] system.gpu.shader_cores.lsq.lane_port[30] system.gpu.shader_cores.lsq.lane_port[31]

[system.gpu.shader_cores.itb]
type=ShaderTLB
access_host_pagetable=false
associativity=4
entries=0
eventq_index=0
gpu=system.gpu
hit_latency=1

[system.gpu.shader_cores.lsq]
type=ShaderLSQ
children=data_tlb power_state
atoms_per_subline=3
cache_line_size=128
clk_domain=system.gpu.clk_domain
data_tlb=system.gpu.shader_cores.lsq.data_tlb
eject_width=1
eventq_index=0
forward_flush=false
inject_width=1
l1_tag_cycles=1
latency=6
num_warp_inst_buffers=64
power_model=
power_state=system.gpu.shader_cores.lsq.power_state
subline_bytes=32
warp_contexts=48
warp_size=32
cache_port=system.ruby.l1_cntrl_sp00.sequencer.in_ports[1]
control_port=system.gpu.shader_cores.lsq_ctrl_port
lane_port=system.gpu.shader_cores.lsq_port[0] system.gpu.shader_cores.lsq_port[1] system.gpu.shader_cores.lsq_port[2] system.gpu.shader_cores.lsq_port[3] system.gpu.shader_cores.lsq_port[4] system.gpu.shader_cores.lsq_port[5] system.gpu.shader_cores.lsq_port[6] system.gpu.shader_cores.lsq_port[7] system.gpu.shader_cores.lsq_port[8] system.gpu.shader_cores.lsq_port[9] system.gpu.shader_cores.lsq_port[10] system.gpu.shader_cores.lsq_port[11] system.gpu.shader_cores.lsq_port[12] system.gpu.shader_cores.lsq_port[13] system.gpu.shader_cores.lsq_port[14] system.gpu.shader_cores.lsq_port[15] system.gpu.shader_cores.lsq_port[16] system.gpu.shader_cores.lsq_port[17] system.gpu.shader_cores.lsq_port[18] system.gpu.shader_cores.lsq_port[19] system.gpu.shader_cores.lsq_port[20] system.gpu.shader_cores.lsq_port[21] system.gpu.shader_cores.lsq_port[22] system.gpu.shader_cores.lsq_port[23] system.gpu.shader_cores.lsq_port[24] system.gpu.shader_cores.lsq_port[25] system.gpu.shader_cores.lsq_port[26] system.gpu.shader_cores.lsq_port[27] system.gpu.shader_cores.lsq_port[28] system.gpu.shader_cores.lsq_port[29] system.gpu.shader_cores.lsq_port[30] system.gpu.shader_cores.lsq_port[31]

[system.gpu.shader_cores.lsq.data_tlb]
type=ShaderTLB
access_host_pagetable=false
associativity=4
entries=0
eventq_index=0
gpu=system.gpu
hit_latency=1

[system.gpu.shader_cores.lsq.power_state]
type=PowerState
clk_gate_bins=20
clk_gate_max=1000000000000
clk_gate_min=1000
default_state=UNDEFINED
eventq_index=0
leaders=
possible_states=

[system.gpu.shader_cores.power_state]
type=PowerState
clk_gate_bins=20
clk_gate_max=1000000000000
clk_gate_min=1000
default_state=UNDEFINED
eventq_index=0
leaders=
possible_states=

[system.gpu.shader_mmu]
type=ShaderMMU
children=pagewalkers00 pagewalkers01 pagewalkers02 pagewalkers03 pagewalkers04 pagewalkers05 pagewalkers06 pagewalkers07 pagewalkers08 pagewalkers09 pagewalkers10 pagewalkers11 pagewalkers12 pagewalkers13 pagewalkers14 pagewalkers15 pagewalkers16 pagewalkers17 pagewalkers18 pagewalkers19 pagewalkers20 pagewalkers21 pagewalkers22 pagewalkers23 pagewalkers24 pagewalkers25 pagewalkers26 pagewalkers27 pagewalkers28 pagewalkers29 pagewalkers30 pagewalkers31 power_state
clk_domain=system.gpu.clk_domain
eventq_index=0
l2_tlb_assoc=4
l2_tlb_entries=0
latency=20
pagewalkers=system.gpu.shader_mmu.pagewalkers00 system.gpu.shader_mmu.pagewalkers01 system.gpu.shader_mmu.pagewalkers02 system.gpu.shader_mmu.pagewalkers03 system.gpu.shader_mmu.pagewalkers04 system.gpu.shader_mmu.pagewalkers05 system.gpu.shader_mmu.pagewalkers06 system.gpu.shader_mmu.pagewalkers07 system.gpu.shader_mmu.pagewalkers08 system.gpu.shader_mmu.pagewalkers09 system.gpu.shader_mmu.pagewalkers10 system.gpu.shader_mmu.pagewalkers11 system.gpu.shader_mmu.pagewalkers12 system.gpu.shader_mmu.pagewalkers13 system.gpu.shader_mmu.pagewalkers14 system.gpu.shader_mmu.pagewalkers15 system.gpu.shader_mmu.pagewalkers16 system.gpu.shader_mmu.pagewalkers17 system.gpu.shader_mmu.pagewalkers18 system.gpu.shader_mmu.pagewalkers19 system.gpu.shader_mmu.pagewalkers20 system.gpu.shader_mmu.pagewalkers21 system.gpu.shader_mmu.pagewalkers22 system.gpu.shader_mmu.pagewalkers23 system.gpu.shader_mmu.pagewalkers24 system.gpu.shader_mmu.pagewalkers25 system.gpu.shader_mmu.pagewalkers26 system.gpu.shader_mmu.pagewalkers27 system.gpu.shader_mmu.pagewalkers28 system.gpu.shader_mmu.pagewalkers29 system.gpu.shader_mmu.pagewalkers30 system.gpu.shader_mmu.pagewalkers31
power_model=
power_state=system.gpu.shader_mmu.power_state
prefetch_buffer_size=0

[system.gpu.shader_mmu.pagewalkers00]
type=X86TLB
children=walker
eventq_index=0
size=1
system=system
walker=system.gpu.shader_mmu.pagewalkers00.walker

[system.gpu.shader_mmu.pagewalkers00.walker]
type=X86PagetableWalker
children=power_state
bypass_l1=false
clk_domain=system.gpu.clk_domain
eventq_index=0
num_squash_per_cycle=4
power_model=
power_state=system.gpu.shader_mmu.pagewalkers00.walker.power_state
system=system
port=system.ruby.ce_cntrl.dma_sequencer.in_ports[0]

[system.gpu.shader_mmu.pagewalkers00.walker.power_state]
type=PowerState
clk_gate_bins=20
clk_gate_max=1000000000000
clk_gate_min=1000
default_state=UNDEFINED
eventq_index=0
leaders=
possible_states=

[system.gpu.shader_mmu.pagewalkers01]
type=X86TLB
children=walker
eventq_index=0
size=1
system=system
walker=system.gpu.shader_mmu.pagewalkers01.walker

[system.gpu.shader_mmu.pagewalkers01.walker]
type=X86PagetableWalker
children=power_state
bypass_l1=false
clk_domain=system.gpu.clk_domain
eventq_index=0
num_squash_per_cycle=4
power_model=
power_state=system.gpu.shader_mmu.pagewalkers01.walker.power_state
system=system
port=system.ruby.ce_cntrl.dma_sequencer.in_ports[1]

[system.gpu.shader_mmu.pagewalkers01.walker.power_state]
type=PowerState
clk_gate_bins=20
clk_gate_max=1000000000000
clk_gate_min=1000
default_state=UNDEFINED
eventq_index=0
leaders=
possible_states=

[system.gpu.shader_mmu.pagewalkers02]
type=X86TLB
children=walker
eventq_index=0
size=1
system=system
walker=system.gpu.shader_mmu.pagewalkers02.walker

[system.gpu.shader_mmu.pagewalkers02.walker]
type=X86PagetableWalker
children=power_state
bypass_l1=false
clk_domain=system.gpu.clk_domain
eventq_index=0
num_squash_per_cycle=4
power_model=
power_state=system.gpu.shader_mmu.pagewalkers02.walker.power_state
system=system
port=system.ruby.ce_cntrl.dma_sequencer.in_ports[2]

[system.gpu.shader_mmu.pagewalkers02.walker.power_state]
type=PowerState
clk_gate_bins=20
clk_gate_max=1000000000000
clk_gate_min=1000
default_state=UNDEFINED
eventq_index=0
leaders=
possible_states=

[system.gpu.shader_mmu.pagewalkers03]
type=X86TLB
children=walker
eventq_index=0
size=1
system=system
walker=system.gpu.shader_mmu.pagewalkers03.walker

[system.gpu.shader_mmu.pagewalkers03.walker]
type=X86PagetableWalker
children=power_state
bypass_l1=false
clk_domain=system.gpu.clk_domain
eventq_index=0
num_squash_per_cycle=4
power_model=
power_state=system.gpu.shader_mmu.pagewalkers03.walker.power_state
system=system
port=system.ruby.ce_cntrl.dma_sequencer.in_ports[3]

[system.gpu.shader_mmu.pagewalkers03.walker.power_state]
type=PowerState
clk_gate_bins=20
clk_gate_max=1000000000000
clk_gate_min=1000
default_state=UNDEFINED
eventq_index=0
leaders=
possible_states=

[system.gpu.shader_mmu.pagewalkers04]
type=X86TLB
children=walker
eventq_index=0
size=1
system=system
walker=system.gpu.shader_mmu.pagewalkers04.walker

[system.gpu.shader_mmu.pagewalkers04.walker]
type=X86PagetableWalker
children=power_state
bypass_l1=false
clk_domain=system.gpu.clk_domain
eventq_index=0
num_squash_per_cycle=4
power_model=
power_state=system.gpu.shader_mmu.pagewalkers04.walker.power_state
system=system
port=system.ruby.ce_cntrl.dma_sequencer.in_ports[4]

[system.gpu.shader_mmu.pagewalkers04.walker.power_state]
type=PowerState
clk_gate_bins=20
clk_gate_max=1000000000000
clk_gate_min=1000
default_state=UNDEFINED
eventq_index=0
leaders=
possible_states=

[system.gpu.shader_mmu.pagewalkers05]
type=X86TLB
children=walker
eventq_index=0
size=1
system=system
walker=system.gpu.shader_mmu.pagewalkers05.walker

[system.gpu.shader_mmu.pagewalkers05.walker]
type=X86PagetableWalker
children=power_state
bypass_l1=false
clk_domain=system.gpu.clk_domain
eventq_index=0
num_squash_per_cycle=4
power_model=
power_state=system.gpu.shader_mmu.pagewalkers05.walker.power_state
system=system
port=system.ruby.ce_cntrl.dma_sequencer.in_ports[5]

[system.gpu.shader_mmu.pagewalkers05.walker.power_state]
type=PowerState
clk_gate_bins=20
clk_gate_max=1000000000000
clk_gate_min=1000
default_state=UNDEFINED
eventq_index=0
leaders=
possible_states=

[system.gpu.shader_mmu.pagewalkers06]
type=X86TLB
children=walker
eventq_index=0
size=1
system=system
walker=system.gpu.shader_mmu.pagewalkers06.walker

[system.gpu.shader_mmu.pagewalkers06.walker]
type=X86PagetableWalker
children=power_state
bypass_l1=false
clk_domain=system.gpu.clk_domain
eventq_index=0
num_squash_per_cycle=4
power_model=
power_state=system.gpu.shader_mmu.pagewalkers06.walker.power_state
system=system
port=system.ruby.ce_cntrl.dma_sequencer.in_ports[6]

[system.gpu.shader_mmu.pagewalkers06.walker.power_state]
type=PowerState
clk_gate_bins=20
clk_gate_max=1000000000000
clk_gate_min=1000
default_state=UNDEFINED
eventq_index=0
leaders=
possible_states=

[system.gpu.shader_mmu.pagewalkers07]
type=X86TLB
children=walker
eventq_index=0
size=1
system=system
walker=system.gpu.shader_mmu.pagewalkers07.walker

[system.gpu.shader_mmu.pagewalkers07.walker]
type=X86PagetableWalker
children=power_state
bypass_l1=false
clk_domain=system.gpu.clk_domain
eventq_index=0
num_squash_per_cycle=4
power_model=
power_state=system.gpu.shader_mmu.pagewalkers07.walker.power_state
system=system
port=system.ruby.ce_cntrl.dma_sequencer.in_ports[7]

[system.gpu.shader_mmu.pagewalkers07.walker.power_state]
type=PowerState
clk_gate_bins=20
clk_gate_max=1000000000000
clk_gate_min=1000
default_state=UNDEFINED
eventq_index=0
leaders=
possible_states=

[system.gpu.shader_mmu.pagewalkers08]
type=X86TLB
children=walker
eventq_index=0
size=1
system=system
walker=system.gpu.shader_mmu.pagewalkers08.walker

[system.gpu.shader_mmu.pagewalkers08.walker]
type=X86PagetableWalker
children=power_state
bypass_l1=false
clk_domain=system.gpu.clk_domain
eventq_index=0
num_squash_per_cycle=4
power_model=
power_state=system.gpu.shader_mmu.pagewalkers08.walker.power_state
system=system
port=system.ruby.ce_cntrl.dma_sequencer.in_ports[8]

[system.gpu.shader_mmu.pagewalkers08.walker.power_state]
type=PowerState
clk_gate_bins=20
clk_gate_max=1000000000000
clk_gate_min=1000
default_state=UNDEFINED
eventq_index=0
leaders=
possible_states=

[system.gpu.shader_mmu.pagewalkers09]
type=X86TLB
children=walker
eventq_index=0
size=1
system=system
walker=system.gpu.shader_mmu.pagewalkers09.walker

[system.gpu.shader_mmu.pagewalkers09.walker]
type=X86PagetableWalker
children=power_state
bypass_l1=false
clk_domain=system.gpu.clk_domain
eventq_index=0
num_squash_per_cycle=4
power_model=
power_state=system.gpu.shader_mmu.pagewalkers09.walker.power_state
system=system
port=system.ruby.ce_cntrl.dma_sequencer.in_ports[9]

[system.gpu.shader_mmu.pagewalkers09.walker.power_state]
type=PowerState
clk_gate_bins=20
clk_gate_max=1000000000000
clk_gate_min=1000
default_state=UNDEFINED
eventq_index=0
leaders=
possible_states=

[system.gpu.shader_mmu.pagewalkers10]
type=X86TLB
children=walker
eventq_index=0
size=1
system=system
walker=system.gpu.shader_mmu.pagewalkers10.walker

[system.gpu.shader_mmu.pagewalkers10.walker]
type=X86PagetableWalker
children=power_state
bypass_l1=false
clk_domain=system.gpu.clk_domain
eventq_index=0
num_squash_per_cycle=4
power_model=
power_state=system.gpu.shader_mmu.pagewalkers10.walker.power_state
system=system
port=system.ruby.ce_cntrl.dma_sequencer.in_ports[10]

[system.gpu.shader_mmu.pagewalkers10.walker.power_state]
type=PowerState
clk_gate_bins=20
clk_gate_max=1000000000000
clk_gate_min=1000
default_state=UNDEFINED
eventq_index=0
leaders=
possible_states=

[system.gpu.shader_mmu.pagewalkers11]
type=X86TLB
children=walker
eventq_index=0
size=1
system=system
walker=system.gpu.shader_mmu.pagewalkers11.walker

[system.gpu.shader_mmu.pagewalkers11.walker]
type=X86PagetableWalker
children=power_state
bypass_l1=false
clk_domain=system.gpu.clk_domain
eventq_index=0
num_squash_per_cycle=4
power_model=
power_state=system.gpu.shader_mmu.pagewalkers11.walker.power_state
system=system
port=system.ruby.ce_cntrl.dma_sequencer.in_ports[11]

[system.gpu.shader_mmu.pagewalkers11.walker.power_state]
type=PowerState
clk_gate_bins=20
clk_gate_max=1000000000000
clk_gate_min=1000
default_state=UNDEFINED
eventq_index=0
leaders=
possible_states=

[system.gpu.shader_mmu.pagewalkers12]
type=X86TLB
children=walker
eventq_index=0
size=1
system=system
walker=system.gpu.shader_mmu.pagewalkers12.walker

[system.gpu.shader_mmu.pagewalkers12.walker]
type=X86PagetableWalker
children=power_state
bypass_l1=false
clk_domain=system.gpu.clk_domain
eventq_index=0
num_squash_per_cycle=4
power_model=
power_state=system.gpu.shader_mmu.pagewalkers12.walker.power_state
system=system
port=system.ruby.ce_cntrl.dma_sequencer.in_ports[12]

[system.gpu.shader_mmu.pagewalkers12.walker.power_state]
type=PowerState
clk_gate_bins=20
clk_gate_max=1000000000000
clk_gate_min=1000
default_state=UNDEFINED
eventq_index=0
leaders=
possible_states=

[system.gpu.shader_mmu.pagewalkers13]
type=X86TLB
children=walker
eventq_index=0
size=1
system=system
walker=system.gpu.shader_mmu.pagewalkers13.walker

[system.gpu.shader_mmu.pagewalkers13.walker]
type=X86PagetableWalker
children=power_state
bypass_l1=false
clk_domain=system.gpu.clk_domain
eventq_index=0
num_squash_per_cycle=4
power_model=
power_state=system.gpu.shader_mmu.pagewalkers13.walker.power_state
system=system
port=system.ruby.ce_cntrl.dma_sequencer.in_ports[13]

[system.gpu.shader_mmu.pagewalkers13.walker.power_state]
type=PowerState
clk_gate_bins=20
clk_gate_max=1000000000000
clk_gate_min=1000
default_state=UNDEFINED
eventq_index=0
leaders=
possible_states=

[system.gpu.shader_mmu.pagewalkers14]
type=X86TLB
children=walker
eventq_index=0
size=1
system=system
walker=system.gpu.shader_mmu.pagewalkers14.walker

[system.gpu.shader_mmu.pagewalkers14.walker]
type=X86PagetableWalker
children=power_state
bypass_l1=false
clk_domain=system.gpu.clk_domain
eventq_index=0
num_squash_per_cycle=4
power_model=
power_state=system.gpu.shader_mmu.pagewalkers14.walker.power_state
system=system
port=system.ruby.ce_cntrl.dma_sequencer.in_ports[14]

[system.gpu.shader_mmu.pagewalkers14.walker.power_state]
type=PowerState
clk_gate_bins=20
clk_gate_max=1000000000000
clk_gate_min=1000
default_state=UNDEFINED
eventq_index=0
leaders=
possible_states=

[system.gpu.shader_mmu.pagewalkers15]
type=X86TLB
children=walker
eventq_index=0
size=1
system=system
walker=system.gpu.shader_mmu.pagewalkers15.walker

[system.gpu.shader_mmu.pagewalkers15.walker]
type=X86PagetableWalker
children=power_state
bypass_l1=false
clk_domain=system.gpu.clk_domain
eventq_index=0
num_squash_per_cycle=4
power_model=
power_state=system.gpu.shader_mmu.pagewalkers15.walker.power_state
system=system
port=system.ruby.ce_cntrl.dma_sequencer.in_ports[15]

[system.gpu.shader_mmu.pagewalkers15.walker.power_state]
type=PowerState
clk_gate_bins=20
clk_gate_max=1000000000000
clk_gate_min=1000
default_state=UNDEFINED
eventq_index=0
leaders=
possible_states=

[system.gpu.shader_mmu.pagewalkers16]
type=X86TLB
children=walker
eventq_index=0
size=1
system=system
walker=system.gpu.shader_mmu.pagewalkers16.walker

[system.gpu.shader_mmu.pagewalkers16.walker]
type=X86PagetableWalker
children=power_state
bypass_l1=false
clk_domain=system.gpu.clk_domain
eventq_index=0
num_squash_per_cycle=4
power_model=
power_state=system.gpu.shader_mmu.pagewalkers16.walker.power_state
system=system
port=system.ruby.ce_cntrl.dma_sequencer.in_ports[16]

[system.gpu.shader_mmu.pagewalkers16.walker.power_state]
type=PowerState
clk_gate_bins=20
clk_gate_max=1000000000000
clk_gate_min=1000
default_state=UNDEFINED
eventq_index=0
leaders=
possible_states=

[system.gpu.shader_mmu.pagewalkers17]
type=X86TLB
children=walker
eventq_index=0
size=1
system=system
walker=system.gpu.shader_mmu.pagewalkers17.walker

[system.gpu.shader_mmu.pagewalkers17.walker]
type=X86PagetableWalker
children=power_state
bypass_l1=false
clk_domain=system.gpu.clk_domain
eventq_index=0
num_squash_per_cycle=4
power_model=
power_state=system.gpu.shader_mmu.pagewalkers17.walker.power_state